
 **************************************************************************************************
 OpenFAST

 Copyright (C) 2025 National Renewable Energy Laboratory
 Copyright (C) 2025 Envision Energy USA LTD

 This program is licensed under Apache License Version 2.0 and comes with ABSOLUTELY NO WARRANTY.
 See the "LICENSE" file distributed with this software for details.
 **************************************************************************************************

 OpenFAST--128-NOTFOUND
 Compile Info:
  - Compiler: GCC version 8.1.0
  - Architecture: 64 bit
  - Precision: double
  - OpenMP: No
  - Date: Jan 31 2025
  - Time: 08:53:05
 Execution Info:
  - Date: 03/11/2026
  - Time: 15:36:11+0100

  *** ERROR RETURN FROM ROUTINE GFEXFO. IERR =           -1
 ****************** Error! *************** 
 Message: Time in OpenFAST is missing from output list                                                                            
 -----------------------------------------
  *** ERROR RETURN FROM ROUTINE GFEXFO. IERR =           -1
 ****************** Error! *************** 
 Message: HSShftTq in OpenFAST is missing from output list                                                                        
 -----------------------------------------
  *** ERROR RETURN FROM ROUTINE GFEXFO. IERR =           -1
 ****************** Error! *************** 
 Message: GenTq in OpenFAST is missing from output list                                                                           
 -----------------------------------------
  *** ERROR RETURN FROM ROUTINE GFEXFO. IERR =           -1
 ****************** Error! *************** 
 Message: GenSpeed in OpenFAST is missing from output list                                                                        
 -----------------------------------------
  *** ERROR RETURN FROM ROUTINE GFEXFO. IERR =           -1
 ****************** Error! *************** 
 Message: RotSpeed in OpenFAST is missing from output list                                                                        
 -----------------------------------------
  Time: -20 of 0 seconds.
