
**************************************************************************************************
OpenFAST

Copyright (C) 2023 National Renewable Energy Laboratory
Copyright (C) 2023 Envision Energy USA LTD

This program is licensed under Apache License Version 2.0 and comes with ABSOLUTELY NO WARRANTY.
See the "LICENSE" file distributed with this software for details.
**************************************************************************************************

OpenFAST-v3.5.1
Compile Info:
 - Compiler: Intel(R) Fortran Compiler 2021
 - Architecture: 64 bit
 - Precision: single
 - OpenMP: No
 - Date: Oct 20 2023
 - Time: 13:40:29
Execution Info:
 - Date: 05/27/2024
 - Time: 19:33:30+0200

OpenFAST input file heading:
    IEA 15 MW offshore reference model monopile configuration

Running ElastoDyn.
Running AeroDyn.
Running InflowWind.
Running HydroDyn.
 Generating incident wave kinematics and current time history.
 Calculating second order difference frequency wave kinematics.
 Calculating second order sum frequency wave kinematics.
 Reading in WAMIT output with root name
 "C:\Workspace\PowerFluct\SingleTurb\10mps_HH\HydroData/IEA-15-240-RWT-UMaineSemi".
 Computing radiation impulse response functions and wave diffraction forces.
 Calculating second order difference-frequency force using the full quadratic transfer function.
Running MoorDyn (v2.0.0, 2023-09-18).
   This is MoorDyn v2, with significant input file changes from v1.
   Copyright: (C) 2023 National Renewable Energy Laboratory, (C) 2019 Matt Hall
   Parsing MoorDyn input file:
   C:\Workspace\PowerFluct\SingleTurb\10mps_HH\IEA-15-240-RWT-UMaineSemi_MoorDyn.dat
Warning: invalid output specifier FX.  Object ID missing.
Warning: invalid output specifier FY.  Object ID missing.
Warning: invalid output specifier FZ.  Object ID missing.
   Created mooring system:  3 lines, 6 points, 0 rods, 0 bodies.
   Finalizing initial conditions using dynamic relaxation.
   t=0.1  FairTen 1: 2.04083E+06, 1, 2                                                               t=0.2  FairTen 1: 2.48971E+06, 2.04083E+06, 1                                                     t=0.3  FairTen 1: 2.61091E+06, 2.48971E+06, 2.04083E+06                                           t=0.4  FairTen 1: 2.60906E+06, 2.61091E+06, 2.48971E+06                                           t=0.5  FairTen 1: 2.53340E+06, 2.60906E+06, 2.61091E+06                                           t=0.6  FairTen 1: 2.32010E+06, 2.53340E+06, 2.60906E+06                                           t=0.7  FairTen 1: 2.29107E+06, 2.32010E+06, 2.53340E+06                                           t=0.8  FairTen 1: 2.43208E+06, 2.29107E+06, 2.32010E+06                                           t=0.9  FairTen 1: 2.51334E+06, 2.43208E+06, 2.29107E+06                                           t=1  FairTen 1: 2.64353E+06, 2.51334E+06, 2.43208E+06                                             t=1.1  FairTen 1: 2.63897E+06, 2.64353E+06, 2.51334E+06                                           t=1.2  FairTen 1: 2.52241E+06, 2.63897E+06, 2.64353E+06                                           t=1.3  FairTen 1: 2.36973E+06, 2.52241E+06, 2.63897E+06                                           t=1.4  FairTen 1: 2.26696E+06, 2.36973E+06, 2.52241E+06                                           t=1.5  FairTen 1: 2.31059E+06, 2.26696E+06, 2.36973E+06                                           t=1.6  FairTen 1: 2.41505E+06, 2.31059E+06, 2.26696E+06                                           t=1.7  FairTen 1: 2.48561E+06, 2.41505E+06, 2.31059E+06                                           t=1.8  FairTen 1: 2.49890E+06, 2.48561E+06, 2.41505E+06                                           t=1.9  FairTen 1: 2.43654E+06, 2.49890E+06, 2.48561E+06                                           t=2  FairTen 1: 2.34659E+06, 2.43654E+06, 2.49890E+06                                             t=2.1  FairTen 1: 2.29766E+06, 2.34659E+06, 2.43654E+06                                           t=2.2  FairTen 1: 2.33635E+06, 2.29766E+06, 2.34659E+06                                           t=2.3  FairTen 1: 2.44569E+06, 2.33635E+06, 2.29766E+06                                           t=2.4  FairTen 1: 2.54227E+06, 2.44569E+06, 2.33635E+06                                           t=2.5  FairTen 1: 2.56887E+06, 2.54227E+06, 2.44569E+06                                           t=2.6  FairTen 1: 2.52633E+06, 2.56887E+06, 2.54227E+06                                           t=2.7  FairTen 1: 2.45133E+06, 2.52633E+06, 2.56887E+06                                           t=2.8  FairTen 1: 2.39629E+06, 2.45133E+06, 2.52633E+06                                           t=2.9  FairTen 1: 2.39661E+06, 2.39629E+06, 2.45133E+06                                           t=3  FairTen 1: 2.44767E+06, 2.39661E+06, 2.39629E+06                                             t=3.1  FairTen 1: 2.50267E+06, 2.44767E+06, 2.39661E+06                                           t=3.2  FairTen 1: 2.51018E+06, 2.50267E+06, 2.44767E+06                                           t=3.3  FairTen 1: 2.46103E+06, 2.51018E+06, 2.50267E+06                                           t=3.4  FairTen 1: 2.38870E+06, 2.46103E+06, 2.51018E+06                                           t=3.5  FairTen 1: 2.33856E+06, 2.38870E+06, 2.46103E+06                                           t=3.6  FairTen 1: 2.33907E+06, 2.33856E+06, 2.38870E+06                                           t=3.7  FairTen 1: 2.38647E+06, 2.33907E+06, 2.33856E+06                                           t=3.8  FairTen 1: 2.44772E+06, 2.38647E+06, 2.33907E+06                                           t=3.9  FairTen 1: 2.48182E+06, 2.44772E+06, 2.38647E+06                                           t=4  FairTen 1: 2.47058E+06, 2.48182E+06, 2.44772E+06                                             t=4.1  FairTen 1: 2.43254E+06, 2.47058E+06, 2.48182E+06                                           t=4.2  FairTen 1: 2.40443E+06, 2.43254E+06, 2.47058E+06                                           t=4.3  FairTen 1: 2.41102E+06, 2.40443E+06, 2.43254E+06                                           t=4.4  FairTen 1: 2.44961E+06, 2.41102E+06, 2.40443E+06                                           t=4.5  FairTen 1: 2.49462E+06, 2.44961E+06, 2.41102E+06                                           t=4.6  FairTen 1: 2.51544E+06, 2.49462E+06, 2.44961E+06                                           t=4.7  FairTen 1: 2.49707E+06, 2.51544E+06, 2.49462E+06                                           t=4.8  FairTen 1: 2.45135E+06, 2.49707E+06, 2.51544E+06                                           t=4.9  FairTen 1: 2.40819E+06, 2.45135E+06, 2.49707E+06                                           t=5  FairTen 1: 2.39273E+06, 2.40819E+06, 2.45135E+06                                             t=5.1  FairTen 1: 2.40796E+06, 2.39273E+06, 2.40819E+06                                           t=5.2  FairTen 1: 2.43559E+06, 2.40796E+06, 2.39273E+06                                           t=5.3  FairTen 1: 2.45154E+06, 2.43559E+06, 2.40796E+06                                           t=5.4  FairTen 1: 2.44288E+06, 2.45154E+06, 2.43559E+06                                           t=5.5  FairTen 1: 2.41607E+06, 2.44288E+06, 2.45154E+06                                           t=5.6  FairTen 1: 2.39200E+06, 2.41607E+06, 2.44288E+06                                           t=5.7  FairTen 1: 2.39041E+06, 2.39200E+06, 2.41607E+06                                           t=5.8  FairTen 1: 2.41494E+06, 2.39041E+06, 2.39200E+06                                           t=5.9  FairTen 1: 2.45105E+06, 2.41494E+06, 2.39041E+06                                           t=6  FairTen 1: 2.47721E+06, 2.45105E+06, 2.41494E+06                                             t=6.1  FairTen 1: 2.48020E+06, 2.47721E+06, 2.45105E+06                                           t=6.2  FairTen 1: 2.46309E+06, 2.48020E+06, 2.47721E+06                                           t=6.3  FairTen 1: 2.44146E+06, 2.46309E+06, 2.48020E+06                                           t=6.4  FairTen 1: 2.43166E+06, 2.44146E+06, 2.46309E+06                                           t=6.5  FairTen 1: 2.43922E+06, 2.43166E+06, 2.44146E+06                                           t=6.6  FairTen 1: 2.45556E+06, 2.43922E+06, 2.43166E+06                                           t=6.7  FairTen 1: 2.46516E+06, 2.45556E+06, 2.43922E+06                                           t=6.8  FairTen 1: 2.45777E+06, 2.46516E+06, 2.45556E+06                                           t=6.9  FairTen 1: 2.43584E+06, 2.45777E+06, 2.46516E+06                                           t=7  FairTen 1: 2.41211E+06, 2.43584E+06, 2.45777E+06                                             t=7.1  FairTen 1: 2.40044E+06, 2.41211E+06, 2.43584E+06                                           t=7.2  FairTen 1: 2.40635E+06, 2.40044E+06, 2.41211E+06                                           t=7.3  FairTen 1: 2.42393E+06, 2.40635E+06, 2.40044E+06                                           t=7.4  FairTen 1: 2.44056E+06, 2.42393E+06, 2.40635E+06                                           t=7.5  FairTen 1: 2.44621E+06, 2.44056E+06, 2.42393E+06                                           t=7.6  FairTen 1: 2.44023E+06, 2.44621E+06, 2.44056E+06                                           t=7.7  FairTen 1: 2.43095E+06, 2.44023E+06, 2.44621E+06                                           t=7.8  FairTen 1: 2.42860E+06, 2.43095E+06, 2.44023E+06                                           t=7.9  FairTen 1: 2.43764E+06, 2.42860E+06, 2.43095E+06                                           t=8  FairTen 1: 2.45357E+06, 2.43764E+06, 2.42860E+06                                             t=8.1  FairTen 1: 2.46640E+06, 2.45357E+06, 2.43764E+06                                           t=8.2  FairTen 1: 2.46780E+06, 2.46640E+06, 2.45357E+06                                           t=8.3  FairTen 1: 2.45686E+06, 2.46780E+06, 2.46640E+06                                           t=8.4  FairTen 1: 2.44045E+06, 2.45686E+06, 2.46780E+06                                           t=8.5  FairTen 1: 2.42810E+06, 2.44045E+06, 2.45686E+06                                           t=8.6  FairTen 1: 2.42543E+06, 2.42810E+06, 2.44045E+06                                           t=8.7  FairTen 1: 2.43068E+06, 2.42543E+06, 2.42810E+06                                           t=8.8  FairTen 1: 2.43678E+06, 2.43068E+06, 2.42543E+06                                           t=8.9  FairTen 1: 2.43699E+06, 2.43678E+06, 2.43068E+06                                           t=9  FairTen 1: 2.42983E+06, 2.43699E+06, 2.43678E+06                                             t=9.1  FairTen 1: 2.42000E+06, 2.42983E+06, 2.43699E+06                                           t=9.2  FairTen 1: 2.41477E+06, 2.42000E+06, 2.42983E+06                                           t=9.3  FairTen 1: 2.41868E+06, 2.41477E+06, 2.42000E+06                                           t=9.4  FairTen 1: 2.43030E+06, 2.41868E+06, 2.41477E+06                                           t=9.5  FairTen 1: 2.44338E+06, 2.43030E+06, 2.41868E+06                                           t=9.6  FairTen 1: 2.45133E+06, 2.44338E+06, 2.43030E+06                                           t=9.7  FairTen 1: 2.45160E+06, 2.45133E+06, 2.44338E+06                                           t=9.8  FairTen 1: 2.44688E+06, 2.45160E+06, 2.45133E+06                                           t=9.9  FairTen 1: 2.44268E+06, 2.44688E+06, 2.45160E+06                                           t=10  FairTen 1: 2.44304E+06, 2.44268E+06, 2.44688E+06                                            t=10.1  FairTen 1: 2.44769E+06, 2.44304E+06, 2.44268E+06                                          t=10.2  FairTen 1: 2.45255E+06, 2.44769E+06, 2.44304E+06                                          t=10.3  FairTen 1: 2.45295E+06, 2.45255E+06, 2.44769E+06                                          t=10.4  FairTen 1: 2.44714E+06, 2.45295E+06, 2.45255E+06                                          t=10.5  FairTen 1: 2.43756E+06, 2.44714E+06, 2.45295E+06                                          t=10.6  FairTen 1: 2.42902E+06, 2.43756E+06, 2.44714E+06                                          t=10.7  FairTen 1: 2.42535E+06, 2.42902E+06, 2.43756E+06                                          t=10.8  FairTen 1: 2.42695E+06, 2.42535E+06, 2.42902E+06                                          t=10.9  FairTen 1: 2.43089E+06, 2.42695E+06, 2.42535E+06                                          t=11  FairTen 1: 2.43334E+06, 2.43089E+06, 2.42695E+06                                            t=11.1  FairTen 1: 2.43242E+06, 2.43334E+06, 2.43089E+06                                          t=11.2  FairTen 1: 2.42947E+06, 2.43242E+06, 2.43334E+06                                          t=11.3  FairTen 1: 2.42778E+06, 2.42947E+06, 2.43242E+06                                          t=11.4  FairTen 1: 2.43008E+06, 2.42778E+06, 2.42947E+06                                          t=11.5  FairTen 1: 2.43639E+06, 2.43008E+06, 2.42778E+06                                          t=11.6  FairTen 1: 2.44397E+06, 2.43639E+06, 2.43008E+06                                          t=11.7  FairTen 1: 2.44924E+06, 2.44397E+06, 2.43639E+06                                          t=11.8  FairTen 1: 2.45016E+06, 2.44924E+06, 2.44397E+06                                          t=11.9  FairTen 1: 2.44747E+06, 2.45016E+06, 2.44924E+06                                          t=12  FairTen 1: 2.44392E+06, 2.44747E+06, 2.45016E+06                                            t=12.1  FairTen 1: 2.44218E+06, 2.44392E+06, 2.44747E+06                                          t=12.2  FairTen 1: 2.44295E+06, 2.44218E+06, 2.44392E+06                                          t=12.3  FairTen 1: 2.44458E+06, 2.44295E+06, 2.44218E+06                                          t=12.4  FairTen 1: 2.44444E+06, 2.44458E+06, 2.44295E+06                                          t=12.5  FairTen 1: 2.44096E+06, 2.44444E+06, 2.44458E+06                                          t=12.6  FairTen 1: 2.43484E+06, 2.44096E+06, 2.44444E+06                                          t=12.7  FairTen 1: 2.42863E+06, 2.43484E+06, 2.44096E+06                                          t=12.8  FairTen 1: 2.42507E+06, 2.42863E+06, 2.43484E+06                                          t=12.9  FairTen 1: 2.42532E+06, 2.42507E+06, 2.42863E+06                                          t=13  FairTen 1: 2.42841E+06, 2.42532E+06, 2.42507E+06                                            t=13.1  FairTen 1: 2.43203E+06, 2.42841E+06, 2.42532E+06                                          t=13.2  FairTen 1: 2.43426E+06, 2.43203E+06, 2.42841E+06                                          t=13.3  FairTen 1: 2.43477E+06, 2.43426E+06, 2.43203E+06                                          t=13.4  FairTen 1: 2.43484E+06, 2.43477E+06, 2.43426E+06                                          t=13.5  FairTen 1: 2.43621E+06, 2.43484E+06, 2.43477E+06                                          t=13.6  FairTen 1: 2.43965E+06, 2.43621E+06, 2.43484E+06                                          t=13.7  FairTen 1: 2.44433E+06, 2.43965E+06, 2.43621E+06                                          t=13.8  FairTen 1: 2.44827E+06, 2.44433E+06, 2.43965E+06                                          t=13.9  FairTen 1: 2.44970E+06, 2.44827E+06, 2.44433E+06                                          t=14  FairTen 1: 2.44816E+06, 2.44970E+06, 2.44827E+06                                            t=14.1  FairTen 1: 2.44466E+06, 2.44816E+06, 2.44970E+06                                          t=14.2  FairTen 1: 2.44092E+06, 2.44466E+06, 2.44816E+06                                          t=14.3  FairTen 1: 2.43816E+06, 2.44092E+06, 2.44466E+06                                          t=14.4  FairTen 1: 2.43645E+06, 2.43816E+06, 2.44092E+06                                          t=14.5  FairTen 1: 2.43496E+06, 2.43645E+06, 2.43816E+06                                          t=14.6  FairTen 1: 2.43283E+06, 2.43496E+06, 2.43645E+06                                          t=14.7  FairTen 1: 2.43006E+06, 2.43283E+06, 2.43496E+06                                          t=14.8  FairTen 1: 2.42760E+06, 2.43006E+06, 2.43283E+06                                          t=14.9  FairTen 1: 2.42671E+06, 2.42760E+06, 2.43006E+06                                          t=15  FairTen 1: 2.42814E+06, 2.42671E+06, 2.42760E+06                                            t=15.1  FairTen 1: 2.43156E+06, 2.42814E+06, 2.42671E+06                                          t=15.2  FairTen 1: 2.43578E+06, 2.43156E+06, 2.42814E+06                                          t=15.3  FairTen 1: 2.43953E+06, 2.43578E+06, 2.43156E+06                                          t=15.4  FairTen 1: 2.44215E+06, 2.43953E+06, 2.43578E+06                                          t=15.5  FairTen 1: 2.44389E+06, 2.44215E+06, 2.43953E+06                                          t=15.6  FairTen 1: 2.44539E+06, 2.44389E+06, 2.44215E+06                                          t=15.7  FairTen 1: 2.44704E+06, 2.44539E+06, 2.44389E+06                                          t=15.8  FairTen 1: 2.44856E+06, 2.44704E+06, 2.44539E+06                                          t=15.9  FairTen 1: 2.44910E+06, 2.44856E+06, 2.44704E+06                                          t=16  FairTen 1: 2.44783E+06, 2.44910E+06, 2.44856E+06                                            t=16.1  FairTen 1: 2.44460E+06, 2.44783E+06, 2.44910E+06                                          t=16.2  FairTen 1: 2.44013E+06, 2.44460E+06, 2.44783E+06                                          t=16.3  FairTen 1: 2.43567E+06, 2.44013E+06, 2.44460E+06                                          t=16.4  FairTen 1: 2.43235E+06, 2.43567E+06, 2.44013E+06                                          t=16.5  FairTen 1: 2.43060E+06, 2.43235E+06, 2.43567E+06                                          t=16.6  FairTen 1: 2.43013E+06, 2.43060E+06, 2.43235E+06                                          t=16.7  FairTen 1: 2.43026E+06, 2.43013E+06, 2.43060E+06                                          t=16.8  FairTen 1: 2.43055E+06, 2.43026E+06, 2.43013E+06                                          t=16.9  FairTen 1: 2.43108E+06, 2.43055E+06, 2.43026E+06                                          t=17  FairTen 1: 2.43232E+06, 2.43108E+06, 2.43055E+06                                            t=17.1  FairTen 1: 2.43472E+06, 2.43232E+06, 2.43108E+06                                          t=17.2  FairTen 1: 2.43817E+06, 2.43472E+06, 2.43232E+06                                          t=17.3  FairTen 1: 2.44198E+06, 2.43817E+06, 2.43472E+06                                          t=17.4  FairTen 1: 2.44511E+06, 2.44198E+06, 2.43817E+06                                          t=17.5  FairTen 1: 2.44676E+06, 2.44511E+06, 2.44198E+06                                          t=17.6  FairTen 1: 2.44673E+06, 2.44676E+06, 2.44511E+06                                          t=17.7  FairTen 1: 2.44538E+06, 2.44673E+06, 2.44676E+06                                          t=17.8  FairTen 1: 2.44336E+06, 2.44538E+06, 2.44673E+06                                          t=17.9  FairTen 1: 2.44116E+06, 2.44336E+06, 2.44538E+06                                          t=18  FairTen 1: 2.43889E+06, 2.44116E+06, 2.44336E+06                                            t=18.1  FairTen 1: 2.43645E+06, 2.43889E+06, 2.44116E+06                                          t=18.2  FairTen 1: 2.43381E+06, 2.43645E+06, 2.43889E+06                                          t=18.3  FairTen 1: 2.43124E+06, 2.43381E+06, 2.43645E+06                                          t=18.4  FairTen 1: 2.42932E+06, 2.43124E+06, 2.43381E+06                                          t=18.5  FairTen 1: 2.42864E+06, 2.42932E+06, 2.43124E+06                                          t=18.6  FairTen 1: 2.42948E+06, 2.42864E+06, 2.42932E+06                                          t=18.7  FairTen 1: 2.43165E+06, 2.42948E+06, 2.42864E+06                                          t=18.8  FairTen 1: 2.43461E+06, 2.43165E+06, 2.42948E+06                                          t=18.9  FairTen 1: 2.43773E+06, 2.43461E+06, 2.43165E+06                                          t=19  FairTen 1: 2.44058E+06, 2.43773E+06, 2.43461E+06                                            t=19.1  FairTen 1: 2.44300E+06, 2.44058E+06, 2.43773E+06                                          t=19.2  FairTen 1: 2.44494E+06, 2.44300E+06, 2.44058E+06                                          t=19.3  FairTen 1: 2.44632E+06, 2.44494E+06, 2.44300E+06                                          t=19.4  FairTen 1: 2.44689E+06, 2.44632E+06, 2.44494E+06                                          t=19.5  FairTen 1: 2.44632E+06, 2.44689E+06, 2.44632E+06                                          t=19.6  FairTen 1: 2.44445E+06, 2.44632E+06, 2.44689E+06                                          t=19.7  FairTen 1: 2.44142E+06, 2.44445E+06, 2.44632E+06                                          t=19.8  FairTen 1: 2.43773E+06, 2.44142E+06, 2.44445E+06                                          t=19.9  FairTen 1: 2.43404E+06, 2.43773E+06, 2.44142E+06                                          t=20  FairTen 1: 2.43097E+06, 2.43404E+06, 2.43773E+06                                            t=20.1  FairTen 1: 2.42890E+06, 2.43097E+06, 2.43404E+06                                          t=20.2  FairTen 1: 2.42790E+06, 2.42890E+06, 2.43097E+06                                          t=20.3  FairTen 1: 2.42794E+06, 2.42790E+06, 2.42890E+06                                          t=20.4  FairTen 1: 2.42896E+06, 2.42794E+06, 2.42790E+06                                          t=20.5  FairTen 1: 2.43095E+06, 2.42896E+06, 2.42794E+06                                          t=20.6  FairTen 1: 2.43385E+06, 2.43095E+06, 2.42896E+06                                          t=20.7  FairTen 1: 2.43750E+06, 2.43385E+06, 2.43095E+06                                          t=20.8  FairTen 1: 2.44145E+06, 2.43750E+06, 2.43385E+06                                          t=20.9  FairTen 1: 2.44513E+06, 2.44145E+06, 2.43750E+06                                          t=21  FairTen 1: 2.44792E+06, 2.44513E+06, 2.44145E+06                                            t=21.1  FairTen 1: 2.44939E+06, 2.44792E+06, 2.44513E+06                                          t=21.2  FairTen 1: 2.44935E+06, 2.44939E+06, 2.44792E+06                                          t=21.3  FairTen 1: 2.44792E+06, 2.44935E+06, 2.44939E+06                                          t=21.4  FairTen 1: 2.44537E+06, 2.44792E+06, 2.44935E+06                                          t=21.5  FairTen 1: 2.44203E+06, 2.44537E+06, 2.44792E+06                                          t=21.6  FairTen 1: 2.43822E+06, 2.44203E+06, 2.44537E+06                                          t=21.7  FairTen 1: 2.43429E+06, 2.43822E+06, 2.44203E+06                                          t=21.8  FairTen 1: 2.43066E+06, 2.43429E+06, 2.43822E+06                                          t=21.9  FairTen 1: 2.42781E+06, 2.43066E+06, 2.43429E+06                                          t=22  FairTen 1: 2.42619E+06, 2.42781E+06, 2.43066E+06                                            t=22.1  FairTen 1: 2.42611E+06, 2.42619E+06, 2.42781E+06                                          t=22.2  FairTen 1: 2.42766E+06, 2.42611E+06, 2.42619E+06                                          t=22.3  FairTen 1: 2.43061E+06, 2.42766E+06, 2.42611E+06                                          t=22.4  FairTen 1: 2.43454E+06, 2.43061E+06, 2.42766E+06                                          t=22.5  FairTen 1: 2.43888E+06, 2.43454E+06, 2.43061E+06                                          t=22.6  FairTen 1: 2.44309E+06, 2.43888E+06, 2.43454E+06                                          t=22.7  FairTen 1: 2.44672E+06, 2.44309E+06, 2.43888E+06                                          t=22.8  FairTen 1: 2.44939E+06, 2.44672E+06, 2.44309E+06                                          t=22.9  FairTen 1: 2.45078E+06, 2.44939E+06, 2.44672E+06                                          t=23  FairTen 1: 2.45067E+06, 2.45078E+06, 2.44939E+06                                            t=23.1  FairTen 1: 2.44899E+06, 2.45067E+06, 2.45078E+06                                          t=23.2  FairTen 1: 2.44585E+06, 2.44899E+06, 2.45067E+06                                          t=23.3  FairTen 1: 2.44164E+06, 2.44585E+06, 2.44899E+06                                          t=23.4  FairTen 1: 2.43693E+06, 2.44164E+06, 2.44585E+06                                          t=23.5  FairTen 1: 2.43235E+06, 2.43693E+06, 2.44164E+06                                          t=23.6  FairTen 1: 2.42851E+06, 2.43235E+06, 2.43693E+06                                          t=23.7  FairTen 1: 2.42581E+06, 2.42851E+06, 2.43235E+06                                          t=23.8  FairTen 1: 2.42453E+06, 2.42581E+06, 2.42851E+06                                          t=23.9  FairTen 1: 2.42477E+06, 2.42453E+06, 2.42581E+06                                          t=24  FairTen 1: 2.42654E+06, 2.42477E+06, 2.42453E+06                                            t=24.1  FairTen 1: 2.42968E+06, 2.42654E+06, 2.42477E+06                                          t=24.2  FairTen 1: 2.43384E+06, 2.42968E+06, 2.42654E+06                                          t=24.3  FairTen 1: 2.43848E+06, 2.43384E+06, 2.42968E+06                                          t=24.4  FairTen 1: 2.44300E+06, 2.43848E+06, 2.43384E+06                                          t=24.5  FairTen 1: 2.44678E+06, 2.44300E+06, 2.43848E+06                                          t=24.6  FairTen 1: 2.44935E+06, 2.44678E+06, 2.44300E+06                                          t=24.7  FairTen 1: 2.45044E+06, 2.44935E+06, 2.44678E+06                                          t=24.8  FairTen 1: 2.44998E+06, 2.45044E+06, 2.44935E+06                                          t=24.9  FairTen 1: 2.44810E+06, 2.44998E+06, 2.45044E+06                                          t=25  FairTen 1: 2.44507E+06, 2.44810E+06, 2.44998E+06                                            t=25.1  FairTen 1: 2.44128E+06, 2.44507E+06, 2.44810E+06                                          t=25.2  FairTen 1: 2.43718E+06, 2.44128E+06, 2.44507E+06                                          t=25.3  FairTen 1: 2.43326E+06, 2.43718E+06, 2.44128E+06                                          t=25.4  FairTen 1: 2.43001E+06, 2.43326E+06, 2.43718E+06                                          t=25.5  FairTen 1: 2.42782E+06, 2.43001E+06, 2.43326E+06                                          t=25.6  FairTen 1: 2.42700E+06, 2.42782E+06, 2.43001E+06                                          t=25.7  FairTen 1: 2.42763E+06, 2.42700E+06, 2.42782E+06                                          t=25.8  FairTen 1: 2.42960E+06, 2.42763E+06, 2.42700E+06                                          t=25.9  FairTen 1: 2.43260E+06, 2.42960E+06, 2.42763E+06                                          t=26  FairTen 1: 2.43618E+06, 2.43260E+06, 2.42960E+06                                            t=26.1  FairTen 1: 2.43986E+06, 2.43618E+06, 2.43260E+06                                          t=26.2  FairTen 1: 2.44321E+06, 2.43986E+06, 2.43618E+06                                          t=26.3  FairTen 1: 2.44583E+06, 2.44321E+06, 2.43986E+06                                          t=26.4  FairTen 1: 2.44744E+06, 2.44583E+06, 2.44321E+06                                          t=26.5  FairTen 1: 2.44785E+06, 2.44744E+06, 2.44583E+06                                          t=26.6  FairTen 1: 2.44701E+06, 2.44785E+06, 2.44744E+06                                          t=26.7  FairTen 1: 2.44503E+06, 2.44701E+06, 2.44785E+06                                          t=26.8  FairTen 1: 2.44218E+06, 2.44503E+06, 2.44701E+06                                          t=26.9  FairTen 1: 2.43886E+06, 2.44218E+06, 2.44503E+06                                          t=27  FairTen 1: 2.43554E+06, 2.43886E+06, 2.44218E+06                                            t=27.1  FairTen 1: 2.43263E+06, 2.43554E+06, 2.43886E+06                                          t=27.2  FairTen 1: 2.43047E+06, 2.43263E+06, 2.43554E+06                                          t=27.3  FairTen 1: 2.42926E+06, 2.43047E+06, 2.43263E+06                                          t=27.4  FairTen 1: 2.42914E+06, 2.42926E+06, 2.43047E+06                                          t=27.5  FairTen 1: 2.43010E+06, 2.42914E+06, 2.42926E+06                                          t=27.6  FairTen 1: 2.43205E+06, 2.43010E+06, 2.42914E+06                                          t=27.7  FairTen 1: 2.43474E+06, 2.43205E+06, 2.43010E+06                                          t=27.8  FairTen 1: 2.43781E+06, 2.43474E+06, 2.43205E+06                                          t=27.9  FairTen 1: 2.44084E+06, 2.43781E+06, 2.43474E+06                                          t=28  FairTen 1: 2.44343E+06, 2.44084E+06, 2.43781E+06                                            t=28.1  FairTen 1: 2.44525E+06, 2.44343E+06, 2.44084E+06                                          t=28.2  FairTen 1: 2.44611E+06, 2.44525E+06, 2.44343E+06                                          t=28.3  FairTen 1: 2.44593E+06, 2.44611E+06, 2.44525E+06                                          t=28.4  FairTen 1: 2.44475E+06, 2.44593E+06, 2.44611E+06                                          t=28.5  FairTen 1: 2.44272E+06, 2.44475E+06, 2.44593E+06                                          t=28.6  FairTen 1: 2.44007E+06, 2.44272E+06, 2.44475E+06                                          t=28.7  FairTen 1: 2.43709E+06, 2.44007E+06, 2.44272E+06                                          t=28.8  FairTen 1: 2.43414E+06, 2.43709E+06, 2.44007E+06                                          t=28.9  FairTen 1: 2.43159E+06, 2.43414E+06, 2.43709E+06                                          t=29  FairTen 1: 2.42977E+06, 2.43159E+06, 2.43414E+06                                            t=29.1  FairTen 1: 2.42895E+06, 2.42977E+06, 2.43159E+06                                          t=29.2  FairTen 1: 2.42922E+06, 2.42895E+06, 2.42977E+06                                          t=29.3  FairTen 1: 2.43051E+06, 2.42922E+06, 2.42895E+06                                          t=29.4  FairTen 1: 2.43264E+06, 2.43051E+06, 2.42922E+06                                          t=29.5  FairTen 1: 2.43531E+06, 2.43264E+06, 2.43051E+06                                          t=29.6  FairTen 1: 2.43823E+06, 2.43531E+06, 2.43264E+06                                          t=29.7  FairTen 1: 2.44107E+06, 2.43823E+06, 2.43531E+06                                          t=29.8  FairTen 1: 2.44353E+06, 2.44107E+06, 2.43823E+06                                          t=29.9  FairTen 1: 2.44535E+06, 2.44353E+06, 2.44107E+06                                          t=30  FairTen 1: 2.44629E+06, 2.44535E+06, 2.44353E+06                                            t=30.1  FairTen 1: 2.44621E+06, 2.44629E+06, 2.44535E+06                                          t=30.2  FairTen 1: 2.44510E+06, 2.44621E+06, 2.44629E+06                                          t=30.3  FairTen 1: 2.44311E+06, 2.44510E+06, 2.44621E+06                                          t=30.4  FairTen 1: 2.44052E+06, 2.44311E+06, 2.44510E+06                                          t=30.5  FairTen 1: 2.43768E+06, 2.44052E+06, 2.44311E+06                                          t=30.6  FairTen 1: 2.43499E+06, 2.43768E+06, 2.44052E+06                                          t=30.7  FairTen 1: 2.43278E+06, 2.43499E+06, 2.43768E+06                                          t=30.8  FairTen 1: 2.43130E+06, 2.43278E+06, 2.43499E+06                                          t=30.9  FairTen 1: 2.43067E+06, 2.43130E+06, 2.43278E+06                                          t=31  FairTen 1: 2.43094E+06, 2.43067E+06, 2.43130E+06                                            t=31.1  FairTen 1: 2.43206E+06, 2.43094E+06, 2.43067E+06                                          t=31.2  FairTen 1: 2.43390E+06, 2.43206E+06, 2.43094E+06                                          t=31.3  FairTen 1: 2.43628E+06, 2.43390E+06, 2.43206E+06                                          t=31.4  FairTen 1: 2.43891E+06, 2.43628E+06, 2.43390E+06                                          t=31.5  FairTen 1: 2.44145E+06, 2.43891E+06, 2.43628E+06                                          t=31.6  FairTen 1: 2.44358E+06, 2.44145E+06, 2.43891E+06                                          t=31.7  FairTen 1: 2.44500E+06, 2.44358E+06, 2.44145E+06                                          t=31.8  FairTen 1: 2.44557E+06, 2.44500E+06, 2.44358E+06                                          t=31.9  FairTen 1: 2.44524E+06, 2.44557E+06, 2.44500E+06                                          t=32  FairTen 1: 2.44411E+06, 2.44524E+06, 2.44557E+06                                            t=32.1  FairTen 1: 2.44232E+06, 2.44411E+06, 2.44524E+06                                          t=32.2  FairTen 1: 2.44010E+06, 2.44232E+06, 2.44411E+06                                          t=32.3  FairTen 1: 2.43769E+06, 2.44010E+06, 2.44232E+06                                          t=32.4  FairTen 1: 2.43535E+06, 2.43769E+06, 2.44010E+06                                          t=32.5  FairTen 1: 2.43335E+06, 2.43535E+06, 2.43769E+06                                          t=32.6  FairTen 1: 2.43193E+06, 2.43335E+06, 2.43535E+06                                          t=32.7  FairTen 1: 2.43124E+06, 2.43193E+06, 2.43335E+06                                          t=32.8  FairTen 1: 2.43133E+06, 2.43124E+06, 2.43193E+06                                          t=32.9  FairTen 1: 2.43215E+06, 2.43133E+06, 2.43124E+06                                          t=33  FairTen 1: 2.43356E+06, 2.43215E+06, 2.43133E+06                                            t=33.1  FairTen 1: 2.43537E+06, 2.43356E+06, 2.43215E+06                                          t=33.2  FairTen 1: 2.43737E+06, 2.43537E+06, 2.43356E+06                                          t=33.3  FairTen 1: 2.43935E+06, 2.43737E+06, 2.43537E+06                                          t=33.4  FairTen 1: 2.44111E+06, 2.43935E+06, 2.43737E+06                                          t=33.5  FairTen 1: 2.44249E+06, 2.44111E+06, 2.43935E+06                                          t=33.6  FairTen 1: 2.44336E+06, 2.44249E+06, 2.44111E+06                                          t=33.7  FairTen 1: 2.44362E+06, 2.44336E+06, 2.44249E+06                                          t=33.8  FairTen 1: 2.44327E+06, 2.44362E+06, 2.44336E+06                                          t=33.9  FairTen 1: 2.44233E+06, 2.44327E+06, 2.44362E+06                                          t=34  FairTen 1: 2.44095E+06, 2.44233E+06, 2.44327E+06                                            t=34.1  FairTen 1: 2.43931E+06, 2.44095E+06, 2.44233E+06                                          t=34.2  FairTen 1: 2.43761E+06, 2.43931E+06, 2.44095E+06                                          t=34.3  FairTen 1: 2.43606E+06, 2.43761E+06, 2.43931E+06                                          t=34.4  FairTen 1: 2.43480E+06, 2.43606E+06, 2.43761E+06                                          t=34.5  FairTen 1: 2.43389E+06, 2.43480E+06, 2.43606E+06                                          t=34.6  FairTen 1: 2.43336E+06, 2.43389E+06, 2.43480E+06                                          t=34.7  FairTen 1: 2.43322E+06, 2.43336E+06, 2.43389E+06                                          t=34.8  FairTen 1: 2.43347E+06, 2.43322E+06, 2.43336E+06                                          t=34.9  FairTen 1: 2.43412E+06, 2.43347E+06, 2.43322E+06                                          t=35  FairTen 1: 2.43511E+06, 2.43412E+06, 2.43347E+06                                            t=35.1  FairTen 1: 2.43635E+06, 2.43511E+06, 2.43412E+06                                          t=35.2  FairTen 1: 2.43769E+06, 2.43635E+06, 2.43511E+06                                          t=35.3  FairTen 1: 2.43897E+06, 2.43769E+06, 2.43635E+06                                          t=35.4  FairTen 1: 2.44004E+06, 2.43897E+06, 2.43769E+06                                          t=35.5  FairTen 1: 2.44080E+06, 2.44004E+06, 2.43897E+06                                          t=35.6  FairTen 1: 2.44121E+06, 2.44080E+06, 2.44004E+06                                          t=35.7  FairTen 1: 2.44127E+06, 2.44121E+06, 2.44080E+06                                          t=35.8  FairTen 1: 2.44103E+06, 2.44127E+06, 2.44121E+06                                          t=35.9  FairTen 1: 2.44053E+06, 2.44103E+06, 2.44127E+06                                          t=36  FairTen 1: 2.43984E+06, 2.44053E+06, 2.44103E+06                                            t=36.1  FairTen 1: 2.43899E+06, 2.43984E+06, 2.44053E+06                                       

   Fairlead tensions converged to 0.1% after 36.1 seconds.
   Fairlead tension: 2.43899E+06
   Fairlead forces: -1.35268E+06, 0, -2.02951E+06
   Fairlead tension: 2.43902E+06
   Fairlead forces: 6.76355E+05, 1.17148E+06, -2.02953E+06
   Fairlead tension: 2.43902E+06
   Fairlead forces: 6.76355E+05, -1.17148E+06, -2.02953E+06
   MoorDyn initialization completed.
Running ServoDyn.
Running ServoDyn Interface for Bladed Controllers (using Intel Visual Fortran for Windows).
Using legacy Bladed DLL interface.
 Time: 0 of 300 seconds. NaN issue. Stop in DTU controller
 PIDvar%outres=                       NaN
 PIDvar%outpro=                       NaN
 PIDvar%outdif=                       NaN
 dt=   1.0000000000000000E-002
 PIDvar%error1_old(1)=  -9.0331268310550605E-004
 error(1)=                       NaN
 PIDvar%Kdif(1)=   0.0000000000000000     
 Padded_term=   0.0000000000000000     
 PIDvar%outset=                       NaN
